! Have some history output from CLM
hist_nhtfrq = 1
hist_mfilt = 1
