! Have some history output from CLM
hist_nhtfrq = -24
hist_mfilt = 5
