fsurdat = '$DIN_LOC_ROOT//lnd/clm2/surfdata_map/ctsm5.1.dev052/surfdata_360x720cru_hist_78pfts_CMIP6_simyr1700_c210824.nc'
